Circuit: * C:\Users\Admin\Documents\SAQ\sim\Draft2.asc

Error on line 11 : r4 n003 0 1meg in -in vcc vee out
	 Unknown parameter "in"
WARNING: Less than two connections to node u1:9.  This node is used by e:u1:cmr.
Direct Newton iteration failed to find .op point.  (Use ".option noopiter" to skip.)
Starting Gmin stepping
Gmin = 10
Gmin = 1.07374
vernier = 0.5
vernier = 0.25
vernier = 0.125
vernier = 0.0625
Gmin = 1.1391
vernier = 0.03125
vernier = 0.015625
Gmin = 1.07882
vernier = 0.0078125
vernier = 0.0104167
Gmin = 1.05729
vernier = 0.00520833
vernier = 0.00694444
vernier = 0.00347222
Gmin = 1.05134
vernier = 0.00462963
vernier = 0.00231481
Gmin = 1.04437
vernier = 0.00308642
vernier = 0.00154321
Gmin = 1.03915
vernier = 0.00205761
vernier = 0.00102881
Gmin = 1.03528
vernier = 0.00137174
Gmin = 1.03218
vernier = 0.00182899
vernier = 0.000914493
vernier = 0.00121932
Gmin = 1.03002
vernier = 0.000609662
vernier = 0.000812882
Gmin = 1.0284
vernier = 0.00108384
vernier = 0.000541921
Gmin = 1.02694
vernier = 0.000722562
vernier = 0.000963415
vernier = 0.000481708
Gmin = 1.02555
vernier = 0.000642277
Gmin = 1.02411
vernier = 0.000856369
vernier = 0.000428184
vernier = 0.000570912
Gmin = 1.0231
vernier = 0.000428184
vernier = 0.000570912
Gmin = 1.02212
vernier = 0.000428184
vernier = 0.000570912
vernier = 0.000428184
Gmin = 1.0215
vernier = 0.000570912
vernier = 0.000428184
Gmin = 1.02062
Gmin = 0
Gmin stepping failed

Starting source stepping with srcstepmethod=0
Source Step = 3.0303%
Source Step = 33.3333%
Source Step = 63.6364%
Source Step = 93.9394%
Source stepping succeeded in finding the operating point.


Date: Sun Nov  2 21:20:38 2025
Total elapsed time: 1.063 seconds.

tnom = 27
temp = 27
method = modified trap
totiter = 14593
traniter = 2082
tranpoints = 1042
accept = 1042
rejected = 0
matrix size = 81
fillins = 48
solver = Normal
Avg thread counts: 1.6/2.2/2.2/1.6
Matrix Compiler1: 4.37 KB object code size  1.0/2.1/[0.4]
Matrix Compiler2: 6.16 KB object code size  1.2/1.5/[1.0]

