Circuit: * C:\Users\Admin\Documents\SAQ\sim\SAQ_Receiver.asc

WARNING: Less than two connections to node u1:9.  This node is used by e:u1:cmr.
WARNING: Less than two connections to node u2:9.  This node is used by e:u2:cmr.
Direct Newton iteration failed to find .op point.  (Use ".option noopiter" to skip.)
Starting Gmin stepping
Gmin = 10
Gmin = 1.07374
vernier = 0.5
vernier = 0.25
vernier = 0.125
vernier = 0.0625
Gmin = 0.995033
vernier = 0.03125
vernier = 0.015625
vernier = 0.0078125
vernier = 0.00390625
Gmin = 1.00273
vernier = 0.00195312
vernier = 0.000976562
Gmin = 1.00077
vernier = 0.000488281
Gmin = 0
Gmin stepping failed

Starting source stepping with srcstepmethod=0
Source Step = 3.0303%
Source Step = 33.3333%
Source Step = 63.6364%
Source Step = 93.9394%
Source stepping succeeded in finding the operating point.

.step k=0.5 c5val=1e-07
.step k=0.6 c5val=1e-07
.step k=0.9 c5val=1e-07
.step k=0.5 c5val=1e-06
.step k=0.6 c5val=1e-06
.step k=0.9 c5val=1e-06

Date: Thu Dec 18 21:46:11 2025
Total elapsed time: 2.031 seconds.

tnom = 27
temp = 27
method = trap
totiter = 2456
traniter = 0
tranpoints = 0
accept = 0
rejected = 0
matrix size = 167
fillins = 260
solver = Normal
Avg thread counts: 1.5/0.0/4.0/1.3
Matrix Compiler1:    1059 opcodes
Matrix Compiler2: 15.52 KB object code size  1.5/3.7/[1.5]

