Circuit: * C:\Users\Admin\Documents\RF_VLF_SAQ_Reception\sim\SAQ_transformer.asc

.OP point found by inspection.
.step r3val=50
.step r3val=23800
.step r3val=47200

Date: Thu Jan  1 20:26:10 2026
Total elapsed time: 0.138 seconds.

tnom = 27
temp = 27
method = trap
totiter = 0
traniter = 0
tranpoints = 0
accept = 0
rejected = 0
matrix size = 6
fillins = 2
solver = Normal
Avg thread counts: 4.0/0.0/0.0/1.6
Matrix Compiler1:      17 opcodes
Matrix Compiler2:      35 opcodes
