Circuit: * C:\Users\Admin\Documents\RF_VLF_SAQ_Reception\sim\SAQ_Receiver.asc

WARNING: Less than two connections to node u1:9.  This node is used by e:u1:cmr.
WARNING: Less than two connections to node u2:9.  This node is used by e:u2:cmr.
Direct Newton iteration failed to find .op point.  (Use ".option noopiter" to skip.)
Starting Gmin stepping
Gmin = 10
Gmin = 1.07374
vernier = 0.5
vernier = 0.25
vernier = 0.125
vernier = 0.0625
Gmin = 0.995033
vernier = 0.03125
vernier = 0.015625
vernier = 0.0078125
vernier = 0.00390625
Gmin = 1.00273
vernier = 0.00195312
vernier = 0.000976562
Gmin = 1.00077
vernier = 0.000488281
Gmin = 0
Gmin stepping failed

Starting source stepping with srcstepmethod=0
Source Step = 3.0303%
Source Step = 33.3333%
Source Step = 63.6364%
Source Step = 93.9394%
Source stepping succeeded in finding the operating point.

.step r4val=50
.step r4val=100050

Date: Thu Jan  1 23:08:33 2026
Total elapsed time: 0.656 seconds.

tnom = 27
temp = 27
method = trap
totiter = 2456
traniter = 0
tranpoints = 0
accept = 0
rejected = 0
matrix size = 167
fillins = 263
solver = Normal
Avg thread counts: 1.5/0.0/4.0/1.4
Matrix Compiler1:    1058 opcodes
Matrix Compiler2: 15.59 KB object code size  2.2/3.9/[2.1]

