Circuit: * C:\Users\Admin\Documents\SAQ\sim\SAQ_transformer.asc

.OP point found by inspection.
.step k=0.6
.step k=0.8

Date: Tue Nov 11 15:33:14 2025
Total elapsed time: 0.092 seconds.

tnom = 27
temp = 27
method = trap
totiter = 0
traniter = 0
tranpoints = 0
accept = 0
rejected = 0
matrix size = 6
fillins = 2
solver = Normal
Avg thread counts: 4.0/0.0/0.0/1.6
Matrix Compiler1:      15 opcodes
Matrix Compiler2:      34 opcodes
